Version 4
SHEET 1 880 680
WIRE 192 -48 192 -80
WIRE 192 144 192 32
WIRE 192 176 80 176
WIRE 192 192 80 192
WIRE 208 240 208 208
WIRE 208 240 176 240
WIRE 208 256 208 240
FLAG 208 256 0
FLAG 192 -80 0
SYMBOL Digital\\and 224 112 R0
SYMATTR InstName A1
SYMBOL voltage 192 48 R180
WINDOW 123 0 0 Left 0
WINDOW 39 0 0 Left 0
SYMATTR InstName V1
SYMATTR Value 5V
SYMBOL diode 176 224 R90
WINDOW 0 0 32 VBottom 2
WINDOW 3 32 32 VTop 2
SYMATTR InstName D1
SYMBOL diode -16 0 R0
SYMATTR InstName D2
TEXT 80 168 Left 1 ;AO1
