Version 4
SHEET 1 880 680
WIRE 112 -16 112 -160
WIRE -304 32 -352 32
WIRE -64 32 -304 32
WIRE 48 32 16 32
WIRE -304 80 -304 32
WIRE 112 208 112 80
WIRE -320 256 -352 256
WIRE -64 256 -320 256
WIRE 48 256 16 256
WIRE -320 320 -320 256
WIRE 112 336 112 304
WIRE 544 336 112 336
WIRE 112 352 112 336
WIRE -304 448 -304 144
WIRE 112 448 112 432
WIRE 112 448 -304 448
WIRE -320 464 -320 384
WIRE 112 464 112 448
WIRE 112 464 -320 464
WIRE 112 496 112 464
FLAG 112 -240 0
FLAG -352 32 A_IN
FLAG -352 256 B_IN
FLAG 544 336 A.B_OUT
FLAG 112 496 0
SYMBOL npn 48 -16 R0
SYMATTR InstName Q1
SYMBOL npn 48 208 R0
SYMATTR InstName Q3
SYMBOL res 32 16 R90
WINDOW 0 0 56 VBottom 2
WINDOW 3 32 56 VTop 2
SYMATTR InstName R1
SYMBOL res 32 240 R90
WINDOW 0 0 56 VBottom 2
WINDOW 3 32 56 VTop 2
SYMATTR InstName R2
SYMBOL res 128 448 R180
WINDOW 0 36 76 Left 2
WINDOW 3 36 40 Left 2
SYMATTR InstName R3
SYMBOL voltage 112 -144 M180
WINDOW 0 24 96 Left 2
WINDOW 3 24 16 Left 2
SYMATTR InstName V1
SYMATTR Value 5V
SYMBOL blackbox -256 432 R0
SYMATTR InstName X1
SYMBOL diode -336 320 R0
SYMATTR InstName D1
SYMBOL diode -320 80 R0
SYMATTR InstName D2
TEXT 512 -8 Left 2 ;AND Gate with ESD
