Version 4
SHEET 1 880 680
WIRE 112 -160 -320 -160
WIRE -320 -48 -320 -96
WIRE 112 -16 112 -160
WIRE -320 32 -336 32
WIRE 48 32 -320 32
WIRE -336 128 -336 32
WIRE -336 128 -448 128
WIRE 112 208 112 80
WIRE -336 256 -336 128
WIRE 48 256 -336 256
WIRE 112 336 112 304
WIRE 544 336 112 336
WIRE 112 496 112 336
FLAG 112 -240 0
FLAG 544 336 A.B_OUT
FLAG 112 496 0
SYMBOL npn 48 -16 R0
SYMATTR InstName Q1
SYMBOL npn 48 208 R0
SYMATTR InstName Q3
SYMBOL voltage 112 -144 M180
WINDOW 0 24 96 Left 2
WINDOW 3 24 16 Left 2
SYMATTR InstName V1
SYMATTR Value 5V
SYMBOL blackbox -256 432 R0
SYMATTR InstName X1
SYMBOL res -304 -64 M0
WINDOW 3 39 59 Left 2
SYMATTR InstName R1
SYMATTR Value 1 Ohm
SYMBOL diode -304 -96 R180
WINDOW 0 24 64 Left 2
WINDOW 3 24 0 Left 2
SYMATTR InstName D1
TEXT 512 -8 Left 2 ;AND Gate with ESD
TEXT -416 32 Left 2 ;A_IN
TEXT -416 256 Left 2 ;B_IN
TEXT -512 104 Left 2 ;From myDaq
